Transformadores.dss
New Transformer.IBR phases=3 xhl=5.75  Conns=[delta, wye] wdg=1 bus=IBR12877178 kV=69 kVA=8250.0 wdg=2 bus=trafo_IBR kV=13.8 kVA=8250.0 
New Transformer.ITO phases=3 xhl=5.75  Conns=[delta, wye] wdg=1 bus=ITO12907821 kV=69 kVA=12500.0 wdg=2 bus=trafo_ITO kV=13.8 kVA=12500.0 
New Transformer.PCO phases=3 xhl=5.75  Conns=[delta, wye] wdg=1 bus=PCO21890819 kV=69 kVA=12500.0 wdg=2 bus=trafo_PCO kV=13.8 kVA=12500.0 
